@<TRIPOS>MOLECULE
ACE-AIB-NME
   25    24     3     0     1
SMALL
USER_CHARGES
@<TRIPOS>ATOM
  1 C1          3.164213   -0.942487   -0.370941 C         1 ACE       -0.3131 ****
  2 H11         3.180849   -1.008063   -1.453251 H         1 ACE        0.0899 ****
  3 H12         3.877314   -0.182153   -0.066542 H         1 ACE        0.0899 ****
  4 H13         3.466374   -1.887307    0.056608 H         1 ACE        0.0899 ****
  5 C           1.793702   -0.578702    0.160502 C         1 ACE        0.7111 ****
  6 O           1.356980   -1.044552    1.174545 O         1 ACE       -0.5691 ****
  7 N           1.090789    0.303623   -0.604732 N         2 AIB       -0.5711 ****
  8 H           1.583234    0.729459   -1.358031 H         2 AIB        0.2845 ****
  9 CA         -0.094215    1.027093   -0.131617 C         2 AIB        0.1295 ****
 10 CB1        -0.553574    1.932854   -1.284846 C         2 AIB       -0.2050 ****
 11 HB11        0.210513    2.670857   -1.512912 H         2 AIB        0.0687 ****
 12 HB12       -0.758709    1.355295   -2.179624 H         2 AIB        0.0687 ****
 13 HB13       -1.455922    2.458623   -1.001371 H         2 AIB        0.0687 ****
 14 CB2         0.222110    1.873608    1.105707 C         2 AIB       -0.2050 ****
 15 HB21       -0.650933    2.433115    1.408952 H         2 AIB        0.0687 ****
 16 HB22        0.530582    1.250582    1.932827 H         2 AIB        0.0687 ****
 17 HB23        1.022615    2.568960    0.869892 H         2 AIB        0.0687 ****
 18 C          -1.268994    0.078289    0.171729 C         2 AIB        0.7160 ****
 19 O          -2.126839    0.412279    0.942507 O         2 AIB       -0.5649 ****
 20 N          -1.346272   -1.051261   -0.562266 N         3 NME       -0.5597 ****
 21 H          -0.518047   -1.359138   -1.013460 H         3 NME        0.3117 ****
 22 C2         -2.369235   -2.036242   -0.282284 C         3 NME       -0.1674 ****
 23 H21        -2.203184   -2.532579    0.667913 H         3 NME        0.1068 ****
 24 H22        -3.336654   -1.557458   -0.254508 H         3 NME        0.1068 ****
 25 H23        -2.364819   -2.775015   -1.073422 H         3 NME        0.1068 ****
@<TRIPOS>BOND
    1     1     2 1
    2     1     3 1
    3     1     4 1
    4     1     5 1
    5     5     6 1
    6     5     7 1
    7     7     8 1
    8     7     9 1
    9     9    10 1
   10     9    14 1
   11     9    18 1
   12    10    11 1
   13    10    12 1
   14    10    13 1
   15    14    15 1
   16    14    16 1
   17    14    17 1
   18    18    19 1
   19    18    20 1
   20    20    21 1
   21    20    22 1
   22    22    23 1
   23    22    24 1
   24    22    25 1
@<TRIPOS>SUBSTRUCTURE
      1  ACE              1 ****               0 ****  ****  
      2  AIB              7 ****               0 ****  ****  
      3  NME             20 ****               0 ****  ****  


