@<TRIPOS>MOLECULE
ACE-AIB-NME
   25    24     3     0     1
SMALL
USER_CHARGES
@<TRIPOS>ATOM
  1 C1         -3.284730    1.356451    0.006052 C         1 ACE       -0.2320 ****
  2 H11        -2.800197    2.297097   -0.224989 H         1 ACE        0.0691 ****
  3 H12        -4.080786    1.174953   -0.703937 H         1 ACE        0.0691 ****
  4 H13        -3.730455    1.425708    0.992426 H         1 ACE        0.0691 ****
  5 C          -2.341812    0.170352   -0.012312 C         1 ACE        0.6348 ****
  6 O          -2.767950   -0.956933   -0.005604 O         1 ACE       -0.5871 ****
  7 N          -1.030520    0.480694   -0.015269 N         2 AIB       -0.3532 ****
  8 H          -0.751938    1.436568   -0.019083 H         2 AIB        0.2277 ****
  9 CA          0.069838   -0.470194    0.000545 C         2 AIB        0.0355 ****
 10 CB1         0.040216   -1.352274   -1.260303 C         2 AIB       -0.2208 ****
 11 HB11       -0.895077   -1.890782   -1.298973 H         2 AIB        0.0751 ****
 12 HB12        0.128128   -0.740784   -2.151881 H         2 AIB        0.0751 ****
 13 HB13        0.849440   -2.074757   -1.261203 H         2 AIB        0.0751 ****
 14 CB2         0.030634   -1.323870    1.280612 C         2 AIB       -0.2208 ****
 15 HB21        0.841116   -2.044491    1.304567 H         2 AIB        0.0751 ****
 16 HB22        0.110222   -0.692408    2.159013 H         2 AIB        0.0751 ****
 17 HB23       -0.904109   -1.863104    1.323482 H         2 AIB        0.0751 ****
 18 C           1.342983    0.400941   -0.003203 C         2 AIB        0.6527 ****
 19 O           1.289394    1.605151   -0.011329 O         2 AIB       -0.5537 ****
 20 N           2.518217   -0.250889    0.004184 N         3 NME       -0.4828 ****
 21 H           2.533815   -1.242259    0.009336 H         3 NME        0.3582 ****
 22 C2          3.776806    0.466569    0.001924 C         3 NME       -0.5022 ****
 23 H21         3.867090    1.086140   -0.880824 H         3 NME        0.1953 ****
 24 H22         3.861439    1.100916    0.874634 H         3 NME        0.1953 ****
 25 H23         4.582275   -0.255015    0.010606 H         3 NME        0.1953 ****
@<TRIPOS>BOND
    1     1     2 1
    2     1     3 1
    3     1     4 1
    4     1     5 1
    5     5     6 1
    6     5     7 1
    7     7     8 1
    8     7     9 1
    9     9    10 1
   10     9    14 1
   11     9    18 1
   12    10    11 1
   13    10    12 1
   14    10    13 1
   15    14    15 1
   16    14    16 1
   17    14    17 1
   18    18    19 1
   19    18    20 1
   20    20    21 1
   21    20    22 1
   22    22    23 1
   23    22    24 1
   24    22    25 1
@<TRIPOS>SUBSTRUCTURE
      1  ACE              1 ****               0 ****  ****  
      2  AIB              7 ****               0 ****  ****  
      3  NME             20 ****               0 ****  ****  


